LAMMPS (23 Jun 2022 - Update 1)
Loaded 1 plugins from /opt/deepmd-kit-2.2.1/lib/deepmd_lmp

units           metal
boundary        p p p
atom_style      atomic

neighbor        2.0 bin
neigh_modify    every 10 delay 0 check no

read_data       coord.lmp
Reading data file ...
  triclinic box = (0 0 0) to (26.124 22.624048 22.78) with tilt (-13.062 0 0)
  reading atoms ...
  432 atoms

pair_style	deepmd	./graph.pb
Summary of lammps deepmd module ...
  >>> Info of deepmd-kit:
  installed to:       /opt/deepmd-kit-2.2.1
  source:             v2.2.1
  source branch:       HEAD
  source commit:      3ac8c4c7
  source commit at:   2023-03-16 12:33:24 +0800
  surpport model ver.:1.1
  build variant:      cuda
  build with tf inc:  /opt/deepmd-kit-2.2.1/include;/opt/deepmd-kit-2.2.1/include
  build with tf lib:  /opt/deepmd-kit-2.2.1/lib/libtensorflow_cc.so
  set tf intra_op_parallelism_threads: 0
  set tf inter_op_parallelism_threads: 0
  >>> Info of lammps module:
  use deepmd-kit at:  /opt/deepmd-kit-2.2.1pair_coeff      * *

variable	run1	equal	60000
variable	run2	equal	60000
variable	run3	equal	120000
variable	run4	equal	60000
variable	run5	equal	180000
variable	run6	equal	2000000

variable	temp1	equal	300.0
variable	temp2	equal	1500.0
variable	temp3	equal	600.0

variable	dt	equal	5.0e-4
variable	tau	equal	0.0005*100
variable	showt	equal	1000

velocity	all create 300 12345
dump            1 all custom 1000 lammps.dump id type x y z

fix             1 all nvt temp 300 1500 0.05
timestep        0.0005
thermo_style    custom step pe ke etotal temp press vol
thermo         	1000
run     	60000

CITE-CITE-CITE-CITE-CITE-CITE-CITE-CITE-CITE-CITE-CITE-CITE-CITE

Your simulation uses code contributions which should be cited:

- USER-DEEPMD package:

@article{Wang_ComputPhysCommun_2018_v228_p178,
  author = {Wang, Han and Zhang, Linfeng and Han, Jiequn and E, Weinan},
  doi = {10.1016/j.cpc.2018.03.016},
  url = {https://doi.org/10.1016/j.cpc.2018.03.016},
  year = 2018,
  month = {jul},
  publisher = {Elsevier {BV}},
  volume = 228,
  journal = {Comput. Phys. Commun.},
  title = {{DeePMD-kit: A deep learning package for many-body potential energy representation and molecular dynamics}},
  pages = {178--184}
}

CITE-CITE-CITE-CITE-CITE-CITE-CITE-CITE-CITE-CITE-CITE-CITE-CITE

Generated 0 of 0 mixed pair_coeff terms from geometric mixing rule
  update every 10 steps, delay 0 steps, check no
Step         PotEng         KinEng         TotEng          Temp          Press          Volume
0  -65024.424      16.713337     -65007.71       300            22267.748      13463.678
Averages over the last 31 of 61 rows, steps 30000 to 60000:
PotEng KinEng TotEng Temp Press Volume
-64898.2 66.4822 -64831.7 1193.34 29880.3 13463.7
Loop time of 216.447 on 1 procs for 60000 steps with 432 atoms

write_restart   nvt1.restart
System init for write_restart ...
Generated 0 of 0 mixed pair_coeff terms from geometric mixing rule
unfix           1

fix             2 all nvt temp 1500 1500 0.05
timestep        0.0005
thermo_style    custom step pe ke etotal temp press vol
thermo         	1000
run     	60000
Generated 0 of 0 mixed pair_coeff terms from geometric mixing rule
Step         PotEng         KinEng         TotEng          Temp          Press          Volume
60000  -64854.064      81.407273     -64772.657      1461.2392      38148.402      13463.678
Averages over the last 31 of 61 rows, steps 90000 to 120000:
PotEng KinEng TotEng Temp Press Volume
-64856.3 83.5946 -64772.7 1500.5 37392.1 13463.7
Loop time of 217.197 on 1 procs for 60000 steps with 432 atoms

write_restart   nvt2.restart
System init for write_restart ...
Generated 0 of 0 mixed pair_coeff terms from geometric mixing rule
unfix           2

fix             3 all nvt temp 1500 300 0.05
timestep        0.0005
thermo_style    custom step pe ke etotal temp press vol
thermo         	1000
run     	120000
Generated 0 of 0 mixed pair_coeff terms from geometric mixing rule
Step         PotEng         KinEng         TotEng          Temp          Press          Volume
120000  -64854.674      87.685211     -64766.988      1573.9265      37278.157      13463.678
Averages over the last 61 of 121 rows, steps 180000 to 240000:
PotEng KinEng TotEng Temp Press Volume
-64914.8 33.1569 -64881.7 595.157 19012.7 13463.7
Loop time of 435.171 on 1 procs for 120000 steps with 432 atoms

write_restart   nvt3.restart
System init for write_restart ...
Generated 0 of 0 mixed pair_coeff terms from geometric mixing rule
unfix           3

fix             4 all nvt temp 300 300 0.05
timestep        0.0005
thermo_style    custom step pe ke etotal temp press vol
thermo         	1000
restart         5000 amorphous.restart
run     	60000
Generated 0 of 0 mixed pair_coeff terms from geometric mixing rule
Step         PotEng         KinEng         TotEng          Temp          Press          Volume
240000  -64949.336      16.628936     -64932.707      298.48504      18155.455      13463.678
Averages over the last 31 of 61 rows, steps 270000 to 300000:
PotEng KinEng TotEng Temp Press Volume
-64951.3 16.7568 -64934.5 300.78 18439.9 13463.7
Loop time of 217.51 on 1 procs for 60000 steps with 432 atoms

write_restart   nvt4.restart
System init for write_restart ...
Generated 0 of 0 mixed pair_coeff terms from geometric mixing rule
unfix           4

##### s4-Amo-600K: to increase temperature up to 600K

fix             5 all nvt temp 300 600 0.05
timestep        0.0005
thermo_style    custom step pe ke etotal temp press vol
thermo         	1000
run     	180000
Generated 0 of 0 mixed pair_coeff terms from geometric mixing rule
Step         PotEng         KinEng         TotEng          Temp          Press          Volume
300000  -64952.489      17.534479     -64934.955      314.73929      18746.924      13463.678
Averages over the last 91 of 181 rows, steps 390000 to 480000:
PotEng KinEng TotEng Temp Press Volume
-64935.9 29.292 -64906.6 525.785 19705.1 13463.7
Loop time of 652.001 on 1 procs for 180000 steps with 432 atoms

write_restart   nvt5.restart
System init for write_restart ...
Generated 0 of 0 mixed pair_coeff terms from geometric mixing rule
unfix           5

#### s8-Amo to crys: stable a time in 600K

fix             6 all nvt temp 600 600 0.05
timestep        0.0005
thermo_style    custom step pe ke etotal temp press vol
thermo         	1000
restart         20000 smc.restart
run     	2000000
Generated 0 of 0 mixed pair_coeff terms from geometric mixing rule
Step         PotEng         KinEng         TotEng          Temp          Press          Volume
480000  -64925.569      32.472331     -64893.097      582.8698       20680.143      13463.678
Averages over the last 1001 of 2001 rows, steps 1480000 to 2480000:
PotEng KinEng TotEng Temp Press Volume
-64954.9 33.4031 -64921.5 599.577 15894.1 13463.7
Loop time of 7254.45 on 1 procs for 2000000 steps with 432 atoms

write_restart   nvt6.restart
System init for write_restart ...
Generated 0 of 0 mixed pair_coeff terms from geometric mixing rule
unfix           6
